data_image0
_chemical_formula_structural       Ti2O4
_chemical_formula_sum              "Ti2 O4"
_cell_length_a       5.56641
_cell_length_b       5.56641
_cell_length_c       5.56641
_cell_angle_alpha    140.054
_cell_angle_beta     140.054
_cell_angle_gamma    57.7711

_space_group_name_H-M_alt    "P 1"
_space_group_IT_number       1

loop_
  _space_group_symop_operation_xyz
  'x, y, z'

loop_
  _atom_site_type_symbol
  _atom_site_label
  _atom_site_symmetry_multiplicity
  _atom_site_fract_x
  _atom_site_fract_y
  _atom_site_fract_z
  _atom_site_occupancy
  Ti  Ti1       1.0  0.96764  0.61633  0.08606  1.0000
  Ti  Ti2       1.0  0.69062  0.34101  0.10279  1.0000
  O   O1        1.0  0.67895  0.98120  0.48297  1.0000
  O   O2        1.0  0.93644  0.17387  0.44154  1.0000
  O   O3        1.0  0.83235  0.26148  0.91936  1.0000
  O   O4        1.0  0.51529  0.33767  0.31214  1.0000
