data_image0
_chemical_formula_structural       Ti2O4
_chemical_formula_sum              "Ti2 O4"
_cell_length_a       5.56641
_cell_length_b       5.56641
_cell_length_c       5.56641
_cell_angle_alpha    140.054
_cell_angle_beta     140.054
_cell_angle_gamma    57.7711

_space_group_name_H-M_alt    "P 1"
_space_group_IT_number       1

loop_
  _space_group_symop_operation_xyz
  'x, y, z'

loop_
  _atom_site_type_symbol
  _atom_site_label
  _atom_site_symmetry_multiplicity
  _atom_site_fract_x
  _atom_site_fract_y
  _atom_site_fract_z
  _atom_site_occupancy
  Ti  Ti1       1.0  0.21879  0.24942  0.75581  1.0000
  Ti  Ti2       1.0  0.44844  0.65699  0.01218  1.0000
  O   O1        1.0  0.09873  0.14800  0.62271  1.0000
  O   O2        1.0  0.71044  0.21096  0.55871  1.0000
  O   O3        1.0  0.13133  0.57855  0.43610  1.0000
  O   O4        1.0  0.64607  0.49921  0.45450  1.0000
