data_image0
_chemical_formula_structural       Ti2O4
_chemical_formula_sum              "Ti2 O4"
_cell_length_a       5.56641
_cell_length_b       5.56641
_cell_length_c       5.56641
_cell_angle_alpha    140.054
_cell_angle_beta     140.054
_cell_angle_gamma    57.7711

_space_group_name_H-M_alt    "P 1"
_space_group_IT_number       1

loop_
  _space_group_symop_operation_xyz
  'x, y, z'

loop_
  _atom_site_type_symbol
  _atom_site_label
  _atom_site_symmetry_multiplicity
  _atom_site_fract_x
  _atom_site_fract_y
  _atom_site_fract_z
  _atom_site_occupancy
  Ti  Ti1       1.0  0.47910  0.80075  0.26653  1.0000
  Ti  Ti2       1.0  0.65257  0.61246  0.34659  1.0000
  O   O1        1.0  0.82008  0.88488  0.63596  1.0000
  O   O2        1.0  0.71376  0.74433  0.90976  1.0000
  O   O3        1.0  0.86714  0.65615  0.03628  1.0000
  O   O4        1.0  0.67611  0.50581  0.79750  1.0000
