data_image0
_chemical_formula_structural       Ti6O12Ge
_chemical_formula_sum              "Ti6 O12 Ge1"
_cell_length_a       5.54426
_cell_length_b       5.9841
_cell_length_c       10.1933
_cell_angle_alpha    92.0441
_cell_angle_beta     124.735
_cell_angle_gamma    106.538

_space_group_name_H-M_alt    "P 1"
_space_group_IT_number       1

loop_
  _space_group_symop_operation_xyz
  'x, y, z'

loop_
  _atom_site_type_symbol
  _atom_site_label
  _atom_site_symmetry_multiplicity
  _atom_site_fract_x
  _atom_site_fract_y
  _atom_site_fract_z
  _atom_site_occupancy
  Ti  Ti1       1.0  0.26580  0.59505  0.14708  1.0000
  Ti  Ti2       1.0  0.61281  -0.20388  0.63511  1.0000
  Ti  Ti3       1.0  0.05464  0.00757  0.00127  1.0000
  Ti  Ti4       1.0  0.00849  0.42846  0.30703  1.0000
  Ti  Ti5       1.0  0.45370  0.37489  0.73539  1.0000
  Ti  Ti6       1.0  0.50641  0.15648  0.44605  1.0000
  O   O1        1.0  -0.01086  0.19968  0.65220  1.0000
  O   O2        1.0  0.68540  0.06095  0.80109  1.0000
  O   O3        1.0  0.17117  0.14682  0.49180  1.0000
  O   O4        1.0  0.35242  0.68368  -0.03814  1.0000
  O   O5        1.0  -0.13172  0.59817  0.69893  1.0000
  O   O6        1.0  0.57310  0.11093  0.22081  1.0000
  O   O7        1.0  0.10886  0.14596  0.21030  1.0000
  O   O8        1.0  0.32694  -0.23652  0.36575  1.0000
  O   O9        1.0  0.65912  0.32490  0.01460  1.0000
  O   O10       1.0  -0.29856  0.61897  0.29008  1.0000
  O   O11       1.0  0.08700  0.05071  0.76470  1.0000
  O   O12       1.0  0.49133  0.66339  0.89455  1.0000
  Ge  Ge1       1.0  0.84904  0.94724  0.27582  1.0000
